/*--------------------------------*- C++ -*----------------------------------*\
| =========                 |                                                 |
| \\      /  F ield         | OpenFOAM: The Open Source CFD Toolbox           |
|  \\    /   O peration     | Version:  v2506                                 |
|   \\  /    A nd           | Website:  www.openfoam.com                      |
|    \\/     M anipulation  |                                                 |
\*---------------------------------------------------------------------------*/
FoamFile
{
    version     2.0;
    format      ascii;
    class       volScalarField;
    object      O2;
}
// * * * * * * * * * * * * * * * * * * * * * * * * * * * * * * * * * * * * * //

dimensions      [0 0 0 0 0 0 0];

internalField   uniform 0.23;

boundaryField
{
    inletAir
    {
        type            fixedValue;
        value           uniform 0.23;  // Air composition
    }

    inletFuel
    {
        type            fixedValue;
        value           uniform 0.1966;  // Reduced O2 in fuel mixture
    }

    outlet
    {
        type            inletOutlet;
        inletValue      uniform 0.23;
        value           uniform 0.23;
    }

    walls
    {
        type            zeroGradient;
    }

    vanes
    {
        type            zeroGradient;
    }

    frontBody
    {
        type            zeroGradient;
    }

    rearBody
    {
        type            zeroGradient;
    }

    frontAndBack
    {
        type            empty;
    }
}


// ************************************************************************* //
