/*--------------------------------*- C++ -*----------------------------------*\
| =========                 |                                                 |
| \\      /  F ield         | OpenFOAM: The Open Source CFD Toolbox           |
|  \\    /   O peration     | Version:  v2506                                 |
|   \\  /    A nd           | Website:  www.openfoam.com                      |
|    \\/     M anipulation  |                                                 |
\*---------------------------------------------------------------------------*/
FoamFile
{
    version     2.0;
    format      ascii;
    class       volScalarField;
    object      p;
}
// * * * * * * * * * * * * * * * * * * * * * * * * * * * * * * * * * * * * * //

dimensions      [1 -1 -2 0 0 0 0];

internalField   uniform 100000;

boundaryField
{
    inletAir
    {
        type            zeroGradient;
    }

    inletFuel
    {
        type            zeroGradient;
    }

    outlet
    {
        type            waveTransmissive;
        psi             thermo:psi;
        lInf            1;
        field           p;
        gamma           1.4;
        fieldInf        100000;
        value           $internalField;
    }

    walls
    {
        type            zeroGradient;
    }

    vanes
    {
        type            zeroGradient;
    }

    frontBody
    {
        type            zeroGradient;
    }

    rearBody
    {
        type            zeroGradient;
    }

    frontAndBack
    {
        type            empty;
    }
}


// ************************************************************************* //
